ZINC09015347
  -OEChem-11201307323D

 50 52  0     0  0  0  0  0  0999 V2000
   -0.0187    1.5258    0.0104 C   0  0  0  0  0  0  0  0  0  0  0  0
    0.0021   -0.0041    0.0020 C   0  0  0  0  0  0  0  0  0  0  0  0
   -1.3386   -0.4987    0.0122 O   0  0  0  0  0  0  0  0  0  0  0  0
   -1.4983   -1.8482    0.0064 C   0  0  0  0  0  0  0  0  0  0  0  0
   -0.3837   -2.6770   -0.0029 C   0  0  0  0  0  0  0  0  0  0  0  0
   -0.5383   -4.0471   -0.0088 C   0  0  0  0  0  0  0  0  0  0  0  0
   -1.8176   -4.6041   -0.0053 C   0  0  0  0  0  0  0  0  0  0  0  0
   -2.9403   -3.7671    0.0042 C   0  0  0  0  0  0  0  0  0  0  0  0
   -2.7739   -2.3932    0.0157 C   0  0  0  0  0  0  0  0  0  0  0  0
   -4.1890   -4.3023    0.0076 O   0  0  0  0  0  0  0  0  0  0  0  0
   -1.9872   -6.0724   -0.0120 C   0  0  0  0  0  0  0  0  0  0  0  0
   -2.5473   -6.8288   -1.0214 C   0  0  0  0  0  0  0  0  0  0  0  0
   -2.5087   -8.1672   -0.6176 C   0  0  0  0  0  0  0  0  0  0  0  0
   -1.9585   -8.2316    0.5681 N   0  0  0  0  0  0  0  0  0  0  0  0
   -1.6137   -6.9377    0.9775 N   0  0  0  0  0  0  0  0  0  0  0  0
   -1.1876   -6.6980    1.8153 H   0  0  0  0  0  0  0  0  0  0  0  0
   -3.0168   -9.3406   -1.4152 C   0  0  0  0  0  0  0  0  0  0  0  0
   -3.0473   -6.3575   -2.1966 O   0  0  0  0  0  0  0  0  0  0  0  0
   -2.2031   -6.2583   -3.2537 C   0  0  0  0  0  0  0  0  0  0  0  0
   -0.8726   -6.6388   -3.1167 C   0  0  0  0  0  0  0  0  0  0  0  0
   -0.0126   -6.5396   -4.1870 C   0  0  0  0  0  0  0  0  0  0  0  0
   -0.4787   -6.0561   -5.4132 C   0  0  0  0  0  0  0  0  0  0  0  0
   -1.8172   -5.6751   -5.5470 C   0  0  0  0  0  0  0  0  0  0  0  0
   -2.6719   -5.7818   -4.4732 C   0  0  0  0  0  0  0  0  0  0  0  0
    0.4391   -5.9478   -6.5622 C   0  0  0  0  0  0  0  0  0  0  0  0
    1.6022   -6.2790   -6.4440 O   0  0  0  0  0  0  0  0  0  0  0  0
   -0.0120   -5.4815   -7.7432 O   0  0  0  0  0  0  0  0  0  0  0  0
    0.9320   -5.4034   -8.8132 C   0  0  0  0  0  0  0  0  0  0  0  0
    0.2414   -4.8555  -10.0637 C   0  0  0  0  0  0  0  0  0  0  0  0
    1.0039    1.9031    0.0027 H   0  0  0  0  0  0  0  0  0  0  0  0
   -0.5459    1.8868   -0.8726 H   0  0  0  0  0  0  0  0  0  0  0  0
   -0.5289    1.8773    0.9072 H   0  0  0  0  0  0  0  0  0  0  0  0
    0.5123   -0.3556   -0.8948 H   0  0  0  0  0  0  0  0  0  0  0  0
    0.5293   -0.3651    0.8851 H   0  0  0  0  0  0  0  0  0  0  0  0
    0.6070   -2.2469   -0.0060 H   0  0  0  0  0  0  0  0  0  0  0  0
    0.3303   -4.6889   -0.0164 H   0  0  0  0  0  0  0  0  0  0  0  0
   -3.6377   -1.7450    0.0274 H   0  0  0  0  0  0  0  0  0  0  0  0
   -4.5463   -4.4615    0.8919 H   0  0  0  0  0  0  0  0  0  0  0  0
   -2.2143   -9.7281   -2.0428 H   0  0  0  0  0  0  0  0  0  0  0  0
   -3.3563  -10.1222   -0.7355 H   0  0  0  0  0  0  0  0  0  0  0  0
   -3.8474   -9.0200   -2.0441 H   0  0  0  0  0  0  0  0  0  0  0  0
   -0.5133   -7.0122   -2.1691 H   0  0  0  0  0  0  0  0  0  0  0  0
    1.0207   -6.8346   -4.0795 H   0  0  0  0  0  0  0  0  0  0  0  0
   -2.1810   -5.3007   -6.4925 H   0  0  0  0  0  0  0  0  0  0  0  0
   -3.7070   -5.4916   -4.5768 H   0  0  0  0  0  0  0  0  0  0  0  0
    1.7490   -4.7401   -8.5292 H   0  0  0  0  0  0  0  0  0  0  0  0
    1.3271   -6.3975   -9.0224 H   0  0  0  0  0  0  0  0  0  0  0  0
    0.9615   -4.7960  -10.8798 H   0  0  0  0  0  0  0  0  0  0  0  0
   -0.5755   -5.5188  -10.3477 H   0  0  0  0  0  0  0  0  0  0  0  0
   -0.1537   -3.8614   -9.8545 H   0  0  0  0  0  0  0  0  0  0  0  0
  1  2  1  0  0  0  0
  1 30  1  0  0  0  0
  1 31  1  0  0  0  0
  1 32  1  0  0  0  0
  2  3  1  0  0  0  0
  2 33  1  0  0  0  0
  2 34  1  0  0  0  0
  3  4  1  0  0  0  0
  4  9  2  0  0  0  0
  4  5  1  0  0  0  0
  5  6  2  0  0  0  0
  5 35  1  0  0  0  0
  6  7  1  0  0  0  0
  6 36  1  0  0  0  0
  7  8  2  0  0  0  0
  7 11  1  0  0  0  0
  8  9  1  0  0  0  0
  8 10  1  0  0  0  0
  9 37  1  0  0  0  0
 10 38  1  0  0  0  0
 11 15  1  0  0  0  0
 11 12  2  0  0  0  0
 12 13  1  0  0  0  0
 12 18  1  0  0  0  0
 13 14  2  0  0  0  0
 13 17  1  0  0  0  0
 14 15  1  0  0  0  0
 15 16  1  0  0  0  0
 17 39  1  0  0  0  0
 17 40  1  0  0  0  0
 17 41  1  0  0  0  0
 18 19  1  0  0  0  0
 19 24  2  0  0  0  0
 19 20  1  0  0  0  0
 20 21  2  0  0  0  0
 20 42  1  0  0  0  0
 21 22  1  0  0  0  0
 21 43  1  0  0  0  0
 22 23  2  0  0  0  0
 22 25  1  0  0  0  0
 23 24  1  0  0  0  0
 23 44  1  0  0  0  0
 24 45  1  0  0  0  0
 25 26  2  0  0  0  0
 25 27  1  0  0  0  0
 27 28  1  0  0  0  0
 28 29  1  0  0  0  0
 28 46  1  0  0  0  0
 28 47  1  0  0  0  0
 29 48  1  0  0  0  0
 29 49  1  0  0  0  0
 29 50  1  0  0  0  0
M  END
$$$$
