ZINC72436953
  -OEChem-11201307313D

 57 59  0     1  0  0  0  0  0999 V2000
   -0.0178    1.4608    0.0101 C   0  0  0  0  0  0  0  0  0  0  0  0
    0.0021   -0.0041    0.0020 N   0  0  0  0  0  0  0  0  0  0  0  0
    0.0241   -0.7433    1.2666 C   0  0  0  0  0  0  0  0  0  0  0  0
   -0.0004   -0.8243   -1.4366 S   0  0  0  0  0  0  0  0  0  0  0  0
   -0.5312   -2.1147   -1.1675 O   0  0  0  0  0  0  0  0  0  0  0  0
   -0.5723    0.0488   -2.4009 O   0  0  0  0  0  0  0  0  0  0  0  0
    1.5806   -1.0453   -1.8769 N   0  0  3  0  0  0  0  0  0  0  0  0
    2.2763   -0.0441   -2.6969 C   0  0  0  0  0  0  0  0  0  0  0  0
    2.8768   -0.7410   -3.9218 C   0  0  0  0  0  0  0  0  0  0  0  0
    3.7623   -1.9009   -3.4607 C   0  0  0  0  0  0  0  0  0  0  0  0
    2.9147   -2.9182   -2.6934 C   0  0  2  0  0  0  0  0  0  0  0  0
    2.1119   -3.2809   -3.3354 H   0  0  0  0  0  0  0  0  0  0  0  0
    2.3162   -2.2433   -1.4499 C   0  0  0  0  0  0  0  0  0  0  0  0
    3.7807   -4.0760   -2.2684 C   0  0  0  0  0  0  0  0  0  0  0  0
    3.9046   -4.3406   -1.0913 O   0  0  0  0  0  0  0  0  0  0  0  0
    4.4176   -4.8174   -3.1964 N   0  0  0  0  0  0  0  0  0  0  0  0
    5.2596   -5.9428   -2.7833 C   0  0  0  0  0  0  0  0  0  0  0  0
    5.8612   -6.6111   -4.0212 C   0  0  0  0  0  0  0  0  0  0  0  0
    6.7405   -7.7865   -3.5897 C   0  0  0  0  0  0  0  0  0  0  0  0
    7.3330   -8.4447   -4.8090 C   0  0  0  0  0  0  0  0  0  0  0  0
    6.7212   -9.5239   -5.3694 C   0  0  0  0  0  0  0  0  0  0  0  0
    7.2542  -10.1456   -6.4967 C   0  0  0  0  0  0  0  0  0  0  0  0
    8.4024   -9.6920   -7.0702 C   0  0  0  0  0  0  0  0  0  0  0  0
    9.0623   -8.5803   -6.5199 C   0  0  0  0  0  0  0  0  0  0  0  0
    8.5167   -7.9441   -5.3768 C   0  0  0  0  0  0  0  0  0  0  0  0
    9.1738   -6.8284   -4.8299 C   0  0  0  0  0  0  0  0  0  0  0  0
   10.3184   -6.3715   -5.4069 C   0  0  0  0  0  0  0  0  0  0  0  0
   10.8514   -6.9932   -6.5348 C   0  0  0  0  0  0  0  0  0  0  0  0
   10.2500   -8.0837   -7.0838 C   0  0  0  0  0  0  0  0  0  0  0  0
    1.0048    1.8381    0.0023 H   0  0  0  0  0  0  0  0  0  0  0  0
   -0.5450    1.8219   -0.8730 H   0  0  0  0  0  0  0  0  0  0  0  0
   -0.5280    1.8123    0.9069 H   0  0  0  0  0  0  0  0  0  0  0  0
    0.0224   -0.0395    2.0990 H   0  0  0  0  0  0  0  0  0  0  0  0
   -0.8567   -1.3823    1.3294 H   0  0  0  0  0  0  0  0  0  0  0  0
    0.9230   -1.3581    1.3125 H   0  0  0  0  0  0  0  0  0  0  0  0
    1.5682    0.7187   -3.0210 H   0  0  0  0  0  0  0  0  0  0  0  0
    3.0721    0.4179   -2.1126 H   0  0  0  0  0  0  0  0  0  0  0  0
    2.0744   -1.1241   -4.5523 H   0  0  0  0  0  0  0  0  0  0  0  0
    3.4764   -0.0284   -4.4883 H   0  0  0  0  0  0  0  0  0  0  0  0
    4.2104   -2.3833   -4.3294 H   0  0  0  0  0  0  0  0  0  0  0  0
    4.5499   -1.5203   -2.8104 H   0  0  0  0  0  0  0  0  0  0  0  0
    3.1152   -1.9571   -0.7659 H   0  0  0  0  0  0  0  0  0  0  0  0
    1.6345   -2.9321   -0.9510 H   0  0  0  0  0  0  0  0  0  0  0  0
    4.3186   -4.6057   -4.1379 H   0  0  0  0  0  0  0  0  0  0  0  0
    6.0615   -5.5799   -2.1404 H   0  0  0  0  0  0  0  0  0  0  0  0
    4.6555   -6.6671   -2.2368 H   0  0  0  0  0  0  0  0  0  0  0  0
    5.0593   -6.9740   -4.6641 H   0  0  0  0  0  0  0  0  0  0  0  0
    6.4653   -5.8868   -4.5676 H   0  0  0  0  0  0  0  0  0  0  0  0
    7.5424   -7.4235   -2.9468 H   0  0  0  0  0  0  0  0  0  0  0  0
    6.1363   -8.5107   -3.0433 H   0  0  0  0  0  0  0  0  0  0  0  0
    5.8092   -9.9042   -4.9334 H   0  0  0  0  0  0  0  0  0  0  0  0
    6.7489  -11.0003   -6.9216 H   0  0  0  0  0  0  0  0  0  0  0  0
    8.8043  -10.1844   -7.9434 H   0  0  0  0  0  0  0  0  0  0  0  0
    8.7721   -6.3361   -3.9565 H   0  0  0  0  0  0  0  0  0  0  0  0
   10.8213   -5.5141   -4.9846 H   0  0  0  0  0  0  0  0  0  0  0  0
   11.7610   -6.6102   -6.9734 H   0  0  0  0  0  0  0  0  0  0  0  0
   10.6749   -8.5556   -7.9574 H   0  0  0  0  0  0  0  0  0  0  0  0
  1  2  1  0  0  0  0
  1 30  1  0  0  0  0
  1 31  1  0  0  0  0
  1 32  1  0  0  0  0
  2  3  1  0  0  0  0
  2  4  1  0  0  0  0
  3 33  1  0  0  0  0
  3 34  1  0  0  0  0
  3 35  1  0  0  0  0
  4  5  2  0  0  0  0
  4  6  2  0  0  0  0
  4  7  1  0  0  0  0
  7 13  1  0  0  0  0
  7  8  1  0  0  0  0
  8  9  1  0  0  0  0
  8 36  1  0  0  0  0
  8 37  1  0  0  0  0
  9 10  1  0  0  0  0
  9 38  1  0  0  0  0
  9 39  1  0  0  0  0
 10 11  1  0  0  0  0
 10 40  1  0  0  0  0
 10 41  1  0  0  0  0
 11 12  1  0  0  0  0
 11 13  1  0  0  0  0
 11 14  1  0  0  0  0
 13 42  1  0  0  0  0
 13 43  1  0  0  0  0
 14 15  2  0  0  0  0
 14 16  1  0  0  0  0
 16 17  1  0  0  0  0
 16 44  1  0  0  0  0
 17 18  1  0  0  0  0
 17 45  1  0  0  0  0
 17 46  1  0  0  0  0
 18 19  1  0  0  0  0
 18 47  1  0  0  0  0
 18 48  1  0  0  0  0
 19 20  1  0  0  0  0
 19 49  1  0  0  0  0
 19 50  1  0  0  0  0
 20 25  2  0  0  0  0
 20 21  1  0  0  0  0
 21 22  2  0  0  0  0
 21 51  1  0  0  0  0
 22 23  1  0  0  0  0
 22 52  1  0  0  0  0
 23 24  2  0  0  0  0
 23 53  1  0  0  0  0
 24 29  1  0  0  0  0
 24 25  1  0  0  0  0
 25 26  1  0  0  0  0
 26 27  2  0  0  0  0
 26 54  1  0  0  0  0
 27 28  1  0  0  0  0
 27 55  1  0  0  0  0
 28 29  2  0  0  0  0
 28 56  1  0  0  0  0
 29 57  1  0  0  0  0
M  END
$$$$
