ZINC10160738
  -OEChem-11201307293D

 52 54  0     0  0  0  0  0  0999 V2000
   -1.0892    1.4928   -1.7374 C   0  0  0  0  0  0  0  0  0  0  0  0
   -1.0649   -0.0140   -1.7371 C   0  0  0  0  0  0  0  0  0  0  0  0
   -1.9750   -0.6353   -2.2441 O   0  0  0  0  0  0  0  0  0  0  0  0
   -0.0320   -0.6712   -1.1735 N   0  0  0  0  0  0  0  0  0  0  0  0
   -0.0550   -2.0691   -1.0868 C   0  0  0  0  0  0  0  0  0  0  0  0
    0.4996   -2.7056    0.0159 C   0  0  0  0  0  0  0  0  0  0  0  0
    0.4770   -4.0831    0.1014 C   0  0  0  0  0  0  0  0  0  0  0  0
   -0.1003   -4.8326   -0.9153 C   0  0  0  0  0  0  0  0  0  0  0  0
   -0.6549   -4.1961   -2.0179 C   0  0  0  0  0  0  0  0  0  0  0  0
   -0.6374   -2.8183   -2.1007 C   0  0  0  0  0  0  0  0  0  0  0  0
   -0.1229   -6.2304   -0.8287 N   0  0  0  0  0  0  0  0  0  0  0  0
    0.0086   -6.9768   -1.9432 C   0  0  0  0  0  0  0  0  0  0  0  0
    0.0623   -6.4402   -3.0296 O   0  0  0  0  0  0  0  0  0  0  0  0
    0.0890   -8.4781   -1.8395 C   0  0  0  0  0  0  0  0  0  0  0  0
    0.2343   -9.0789   -3.2391 C   0  0  0  0  0  0  0  0  0  0  0  0
    0.3159  -10.6031   -3.1338 C   0  0  0  0  0  0  0  0  0  0  0  0
    0.4882  -11.3154   -4.7932 S   0  0  0  0  0  0  0  0  0  0  0  0
    0.5680  -13.0520   -4.5054 C   0  0  0  0  0  0  0  0  0  0  0  0
    0.5062  -13.6538   -3.3403 N   0  0  0  0  0  0  0  0  0  0  0  0
    0.5958  -14.9258   -3.5007 N   0  0  0  0  0  0  0  0  0  0  0  0
    0.7190  -15.2095   -4.7665 C   0  0  0  0  0  0  0  0  0  0  0  0
    0.6998  -14.0266   -5.4525 N   0  0  0  0  0  0  0  0  0  0  0  0
    0.8028  -13.8431   -6.9023 C   0  0  0  0  0  0  0  0  0  0  0  0
    0.8516  -16.5865   -5.3642 C   0  0  0  0  0  0  0  0  0  0  0  0
   -0.4794  -17.1147   -5.6738 N   0  0  0  0  0  0  0  0  0  0  0  0
   -1.2780  -17.8458   -4.8363 C   0  0  0  0  0  0  0  0  0  0  0  0
   -2.4062  -18.1231   -5.5175 C   0  0  0  0  0  0  0  0  0  0  0  0
   -2.2993  -17.5763   -6.7376 N   0  0  0  0  0  0  0  0  0  0  0  0
   -1.1498  -16.9663   -6.8366 C   0  0  0  0  0  0  0  0  0  0  0  0
   -1.5910    1.8483   -0.8375 H   0  0  0  0  0  0  0  0  0  0  0  0
   -0.0677    1.8726   -1.7578 H   0  0  0  0  0  0  0  0  0  0  0  0
   -1.6263    1.8474   -2.6171 H   0  0  0  0  0  0  0  0  0  0  0  0
    0.7272   -0.1763   -0.8280 H   0  0  0  0  0  0  0  0  0  0  0  0
    0.9490   -2.1228    0.8064 H   0  0  0  0  0  0  0  0  0  0  0  0
    0.9087   -4.5781    0.9588 H   0  0  0  0  0  0  0  0  0  0  0  0
   -1.1036   -4.7789   -2.8087 H   0  0  0  0  0  0  0  0  0  0  0  0
   -1.0730   -2.3231   -2.9559 H   0  0  0  0  0  0  0  0  0  0  0  0
   -0.2331   -6.6613    0.0333 H   0  0  0  0  0  0  0  0  0  0  0  0
    0.9520   -8.7548   -1.2339 H   0  0  0  0  0  0  0  0  0  0  0  0
   -0.8194   -8.8592   -1.3730 H   0  0  0  0  0  0  0  0  0  0  0  0
   -0.6287   -8.8022   -3.8447 H   0  0  0  0  0  0  0  0  0  0  0  0
    1.1427   -8.6978   -3.7056 H   0  0  0  0  0  0  0  0  0  0  0  0
    1.1789  -10.8798   -2.5283 H   0  0  0  0  0  0  0  0  0  0  0  0
   -0.5925  -10.9842   -2.6674 H   0  0  0  0  0  0  0  0  0  0  0  0
    1.8512  -13.7377   -7.1816 H   0  0  0  0  0  0  0  0  0  0  0  0
    0.3770  -14.7089   -7.4093 H   0  0  0  0  0  0  0  0  0  0  0  0
    0.2570  -12.9461   -7.1947 H   0  0  0  0  0  0  0  0  0  0  0  0
    1.4419  -16.5303   -6.2788 H   0  0  0  0  0  0  0  0  0  0  0  0
    1.3474  -17.2457   -4.6517 H   0  0  0  0  0  0  0  0  0  0  0  0
   -1.0476  -18.1433   -3.8240 H   0  0  0  0  0  0  0  0  0  0  0  0
   -3.2493  -18.6869   -5.1464 H   0  0  0  0  0  0  0  0  0  0  0  0
   -0.7928  -16.4335   -7.7055 H   0  0  0  0  0  0  0  0  0  0  0  0
  1  2  1  0  0  0  0
  1 30  1  0  0  0  0
  1 31  1  0  0  0  0
  1 32  1  0  0  0  0
  2  3  2  0  0  0  0
  2  4  1  0  0  0  0
  4  5  1  0  0  0  0
  4 33  1  0  0  0  0
  5 10  2  0  0  0  0
  5  6  1  0  0  0  0
  6  7  2  0  0  0  0
  6 34  1  0  0  0  0
  7  8  1  0  0  0  0
  7 35  1  0  0  0  0
  8  9  2  0  0  0  0
  8 11  1  0  0  0  0
  9 10  1  0  0  0  0
  9 36  1  0  0  0  0
 10 37  1  0  0  0  0
 11 12  1  0  0  0  0
 11 38  1  0  0  0  0
 12 13  2  0  0  0  0
 12 14  1  0  0  0  0
 14 15  1  0  0  0  0
 14 39  1  0  0  0  0
 14 40  1  0  0  0  0
 15 16  1  0  0  0  0
 15 41  1  0  0  0  0
 15 42  1  0  0  0  0
 16 17  1  0  0  0  0
 16 43  1  0  0  0  0
 16 44  1  0  0  0  0
 17 18  1  0  0  0  0
 18 22  1  0  0  0  0
 18 19  2  0  0  0  0
 19 20  1  0  0  0  0
 20 21  2  0  0  0  0
 21 22  1  0  0  0  0
 21 24  1  0  0  0  0
 22 23  1  0  0  0  0
 23 45  1  0  0  0  0
 23 46  1  0  0  0  0
 23 47  1  0  0  0  0
 24 25  1  0  0  0  0
 24 48  1  0  0  0  0
 24 49  1  0  0  0  0
 25 29  1  0  0  0  0
 25 26  1  0  0  0  0
 26 27  2  0  0  0  0
 26 50  1  0  0  0  0
 27 28  1  0  0  0  0
 27 51  1  0  0  0  0
 28 29  2  0  0  0  0
 29 52  1  0  0  0  0
M  END
$$$$
