ZINC19571488
  -OEChem-11201307323D

 53 56  0     1  0  0  0  0  0999 V2000
    0.8046   -0.7366    5.4892 C   0  0  0  0  0  0  0  0  0  0  0  0
   -0.4494    0.0952    5.4078 C   0  0  0  0  0  0  0  0  0  0  0  0
   -1.2105    0.3104    6.5413 C   0  0  0  0  0  0  0  0  0  0  0  0
   -2.3622    1.0749    6.4664 C   0  0  0  0  0  0  0  0  0  0  0  0
   -2.7503    1.6233    5.2554 C   0  0  0  0  0  0  0  0  0  0  0  0
   -1.9879    1.4068    4.1236 C   0  0  0  0  0  0  0  0  0  0  0  0
   -0.8350    0.6474    4.2007 C   0  0  0  0  0  0  0  0  0  0  0  0
    0.1398    0.3778    2.7579 S   0  0  0  0  0  0  0  0  0  0  0  0
    0.3823   -1.0206    2.6871 O   0  0  0  0  0  0  0  0  0  0  0  0
   -0.4868    1.0966    1.7043 O   0  0  0  0  0  0  0  0  0  0  0  0
    1.6073    1.1002    3.0165 N   0  0  0  0  0  0  0  0  0  0  0  0
    2.7554    0.3154    3.4903 C   0  0  0  0  0  0  0  0  0  0  0  0
    3.9314    0.5350    2.5340 C   0  0  1  0  0  0  0  0  0  0  0  0
    4.8176    0.0381    2.9288 H   0  0  0  0  0  0  0  0  0  0  0  0
    3.5896   -0.0480    1.1622 C   0  0  0  0  0  0  0  0  0  0  0  0
    2.3509    0.6543    0.6026 C   0  0  0  0  0  0  0  0  0  0  0  0
    2.6360    2.1508    0.4604 C   0  0  0  0  0  0  0  0  0  0  0  0
    2.9753    2.7383    1.8309 C   0  0  1  0  0  0  0  0  0  0  0  0
    3.1838    3.8032    1.7275 H   0  0  0  0  0  0  0  0  0  0  0  0
    1.7884    2.5374    2.7706 C   0  0  0  0  0  0  0  0  0  0  0  0
    4.2054    2.0340    2.3999 C   0  0  0  0  0  0  0  0  0  0  0  0
    5.3484    2.2432    1.5012 N   0  0  0  0  0  0  0  0  0  0  0  0
    6.5338    1.5164    1.9785 C   0  0  0  0  0  0  0  0  0  0  0  0
    7.6810    1.7128    0.9839 C   0  0  0  0  0  0  0  0  0  0  0  0
    7.9318    3.1117    0.8234 O   0  0  0  0  0  0  0  0  0  0  0  0
    6.7985    3.8502    0.3591 C   0  0  0  0  0  0  0  0  0  0  0  0
    5.6424    3.6754    1.3474 C   0  0  0  0  0  0  0  0  0  0  0  0
   -3.1070    1.2855    7.5736 F   0  0  0  0  0  0  0  0  0  0  0  0
    1.6667   -0.0825    5.6194 H   0  0  0  0  0  0  0  0  0  0  0  0
    0.7342   -1.4181    6.3370 H   0  0  0  0  0  0  0  0  0  0  0  0
    0.9199   -1.3110    4.5700 H   0  0  0  0  0  0  0  0  0  0  0  0
   -0.9070   -0.1181    7.4851 H   0  0  0  0  0  0  0  0  0  0  0  0
   -3.6488    2.2196    5.1957 H   0  0  0  0  0  0  0  0  0  0  0  0
   -2.2906    1.8341    3.1790 H   0  0  0  0  0  0  0  0  0  0  0  0
    3.0332    0.6427    4.4922 H   0  0  0  0  0  0  0  0  0  0  0  0
    2.4923   -0.7422    3.5091 H   0  0  0  0  0  0  0  0  0  0  0  0
    4.4297    0.1023    0.4842 H   0  0  0  0  0  0  0  0  0  0  0  0
    3.3889   -1.1148    1.2607 H   0  0  0  0  0  0  0  0  0  0  0  0
    2.1060    0.2364   -0.3738 H   0  0  0  0  0  0  0  0  0  0  0  0
    1.5114    0.5071    1.2822 H   0  0  0  0  0  0  0  0  0  0  0  0
    3.4779    2.2974   -0.2163 H   0  0  0  0  0  0  0  0  0  0  0  0
    1.7554    2.6517    0.0583 H   0  0  0  0  0  0  0  0  0  0  0  0
    0.8870    2.9464    2.3142 H   0  0  0  0  0  0  0  0  0  0  0  0
    1.9864    3.0472    3.7135 H   0  0  0  0  0  0  0  0  0  0  0  0
    4.4360    2.4495    3.3809 H   0  0  0  0  0  0  0  0  0  0  0  0
    6.8284    1.9017    2.9547 H   0  0  0  0  0  0  0  0  0  0  0  0
    6.3011    0.4547    2.0607 H   0  0  0  0  0  0  0  0  0  0  0  0
    8.5784    1.2232    1.3620 H   0  0  0  0  0  0  0  0  0  0  0  0
    7.4070    1.2795    0.0220 H   0  0  0  0  0  0  0  0  0  0  0  0
    7.0577    4.9064    0.2853 H   0  0  0  0  0  0  0  0  0  0  0  0
    6.4988    3.4790   -0.6210 H   0  0  0  0  0  0  0  0  0  0  0  0
    4.7591    4.1897    0.9689 H   0  0  0  0  0  0  0  0  0  0  0  0
    5.9228    4.0952    2.3134 H   0  0  0  0  0  0  0  0  0  0  0  0
  1  2  1  0  0  0  0
  1 29  1  0  0  0  0
  1 30  1  0  0  0  0
  1 31  1  0  0  0  0
  2  7  2  0  0  0  0
  2  3  1  0  0  0  0
  3  4  2  0  0  0  0
  3 32  1  0  0  0  0
  4  5  1  0  0  0  0
  4 28  1  0  0  0  0
  5  6  2  0  0  0  0
  5 33  1  0  0  0  0
  6  7  1  0  0  0  0
  6 34  1  0  0  0  0
  7  8  1  0  0  0  0
  8  9  2  0  0  0  0
  8 10  2  0  0  0  0
  8 11  1  0  0  0  0
 11 20  1  0  0  0  0
 11 12  1  0  0  0  0
 12 13  1  0  0  0  0
 12 35  1  0  0  0  0
 12 36  1  0  0  0  0
 13 14  1  0  0  0  0
 13 21  1  0  0  0  0
 13 15  1  0  0  0  0
 15 16  1  0  0  0  0
 15 37  1  0  0  0  0
 15 38  1  0  0  0  0
 16 17  1  0  0  0  0
 16 39  1  0  0  0  0
 16 40  1  0  0  0  0
 17 18  1  0  0  0  0
 17 41  1  0  0  0  0
 17 42  1  0  0  0  0
 18 19  1  0  0  0  0
 18 20  1  0  0  0  0
 18 21  1  0  0  0  0
 20 43  1  0  0  0  0
 20 44  1  0  0  0  0
 21 22  1  0  0  0  0
 21 45  1  0  0  0  0
 22 27  1  0  0  0  0
 22 23  1  0  0  0  0
 23 24  1  0  0  0  0
 23 46  1  0  0  0  0
 23 47  1  0  0  0  0
 24 25  1  0  0  0  0
 24 48  1  0  0  0  0
 24 49  1  0  0  0  0
 25 26  1  0  0  0  0
 26 27  1  0  0  0  0
 26 50  1  0  0  0  0
 26 51  1  0  0  0  0
 27 52  1  0  0  0  0
 27 53  1  0  0  0  0
M  END
$$$$
